2
Properties=species:S:1:pos:R:3:forces:R:3 pbc="F F F" free_energy=0.0 energy=0.0
He       0.66069652       0.66287920       0.65169577       0.00000000       0.00000000       0.00000000 
He       0.00086244      -0.00064940       0.00557994       0.00000000       0.00000000       0.00000000 
2
Properties=species:S:1:pos:R:3:forces:R:3 pbc="F F F" free_energy=0.0 energy=0.0
He       0.66069652       0.66287920       0.65169577       0.00000000       0.00000000       0.00000000 
He       0.00086244      -0.00064940       0.00557994       0.00000000       0.00000000       0.00000000 
2
Properties=species:S:1:pos:R:3:forces:R:3 pbc="F F F" free_energy=0.0 energy=0.0
He       0.66071140       0.66289413       0.65171045       0.00000000       0.00000000       0.00000000 
He       0.00088464      -0.00066611       0.00572354       0.00000000       0.00000000       0.00000000 
2
Properties=species:S:1:pos:R:3:forces:R:3 pbc="F F F" free_energy=0.0 energy=0.0
He       0.66131715       0.66350188       0.65230795       0.00000000       0.00000000       0.00000000 
He       0.00181177      -0.00136423       0.01172205       0.00000000       0.00000000       0.00000000 
2
Properties=species:S:1:pos:R:3:forces:R:3 pbc="F F F" free_energy=0.0 energy=0.0
He       0.66227447       0.66446236       0.65325222       0.00000000       0.00000000       0.00000000 
He       0.00332924      -0.00250685       0.02153998       0.00000000       0.00000000       0.00000000 
2
Properties=species:S:1:pos:R:3:forces:R:3 pbc="F F F" free_energy=0.0 energy=0.0
He       0.66319207       0.66538299       0.65415732       0.00000000       0.00000000       0.00000000 
He       0.00484670      -0.00364947       0.03135790       0.00000000       0.00000000       0.00000000 
2
Properties=species:S:1:pos:R:3:forces:R:3 pbc="F F F" free_energy=0.0 energy=0.0
He       0.66407039       0.66626422       0.65502368       0.00000000       0.00000000       0.00000000 
He       0.00636417      -0.00479209       0.04117583       0.00000000       0.00000000       0.00000000 
2
Properties=species:S:1:pos:R:3:forces:R:3 pbc="F F F" free_energy=0.0 energy=0.0
He       0.66491842       0.66711505       0.65586016       0.00000000       0.00000000       0.00000000 
He       0.00788164      -0.00593471       0.05099376       0.00000000       0.00000000       0.00000000 
2
Properties=species:S:1:pos:R:3:forces:R:3 pbc="F F F" free_energy=0.0 energy=0.0
He       0.66575057       0.66794994       0.65668096       0.00000000       0.00000000       0.00000000 
He       0.00939910      -0.00707734       0.06081169       0.00000000       0.00000000       0.00000000 
2
Properties=species:S:1:pos:R:3:forces:R:3 pbc="F F F" free_energy=0.0 energy=0.0
He       0.66658072       0.66878284       0.65749981       0.00000000       0.00000000       0.00000000 
He       0.01091657      -0.00821996       0.07062961       0.00000000       0.00000000       0.00000000 
2
Properties=species:S:1:pos:R:3:forces:R:3 pbc="F F F" free_energy=0.0 energy=0.0
He       0.66740953       0.66961439       0.65831733       0.00000000       0.00000000       0.00000000 
He       0.01243404      -0.00936258       0.08044754       0.00000000       0.00000000       0.00000000 
2
Properties=species:S:1:pos:R:3:forces:R:3 pbc="F F F" free_energy=0.0 energy=0.0
He       0.66740953       0.66961439       0.65831733       0.00000000       0.00000000       0.00000000 
He       0.01243404      -0.00936258       0.08044754       0.00000000       0.00000000       0.00000000 
2
Properties=species:S:1:pos:R:3:forces:R:3 pbc="F F F" free_energy=0.0 energy=0.0
He       0.66739810       0.66960155       0.65830460       0.00000000       0.00000000       0.00000000 
He       0.01253562      -0.00943842       0.08109950       0.00000000       0.00000000       0.00000000 
2
Properties=species:S:1:pos:R:3:forces:R:3 pbc="F F F" free_energy=0.0 energy=0.0
He       0.66734806       0.66954542       0.65824893       0.00000000       0.00000000       0.00000000 
He       0.01300544      -0.00978934       0.08411595       0.00000000       0.00000000       0.00000000 
2
Properties=species:S:1:pos:R:3:forces:R:3 pbc="F F F" free_energy=0.0 energy=0.0
He       0.66720516       0.66938512       0.65808997       0.00000000       0.00000000       0.00000000 
He       0.01436762      -0.01080667       0.09286094       0.00000000       0.00000000       0.00000000 
2
Properties=species:S:1:pos:R:3:forces:R:3 pbc="F F F" free_energy=0.0 energy=0.0
He       0.66724758       0.66943271       0.65813716       0.00000000       0.00000000       0.00000000 
He       0.01395922      -0.01050168       0.09023930       0.00000000       0.00000000       0.00000000 
2
Properties=species:S:1:pos:R:3:forces:R:3 pbc="F F F" free_energy=0.0 energy=0.0
He       0.66724758       0.66943271       0.65813716       0.00000000       0.00000000       0.00000000 
He       0.01395922      -0.01050168       0.09023930       0.00000000       0.00000000       0.00000000 
2
Properties=species:S:1:pos:R:3:forces:R:3 pbc="F F F" free_energy=0.0 energy=0.0
He       0.66724638       0.66943135       0.65813581       0.00000000       0.00000000       0.00000000 
He       0.01397272      -0.01051175       0.09032585       0.00000000       0.00000000       0.00000000 
2
Properties=species:S:1:pos:R:3:forces:R:3 pbc="F F F" free_energy=0.0 energy=0.0
He       0.66721326       0.66939386       0.65809860       0.00000000       0.00000000       0.00000000 
He       0.01434717      -0.01079112       0.09272697       0.00000000       0.00000000       0.00000000 
2
Properties=species:S:1:pos:R:3:forces:R:3 pbc="F F F" free_energy=0.0 energy=0.0
He       0.66723645       0.66942011       0.65812466       0.00000000       0.00000000       0.00000000 
He       0.01408457      -0.01059521       0.09104312       0.00000000       0.00000000       0.00000000 
