4
Properties=species:S:1:pos:R:3:forces:R:3 pbc="F F F" free_energy=0.0 energy=0.0
X      -0.01080995      -0.00309312       0.01359469       0.00000000       0.00000000       0.00000000 
X      -0.34009943      -0.35609533       0.82785597       0.00000000       0.00000000       0.00000000 
X       0.67435593      -0.53602554      -0.30580693       0.00000000       0.00000000       0.00000000 
X      -0.37642566       0.79171926      -0.38729148       0.00000000       0.00000000       0.00000000 
4
Properties=species:S:1:pos:R:3:forces:R:3 pbc="F F F" free_energy=0.0 energy=0.0
X      -0.01116605      -0.00120414       0.01214680       0.00000000       0.00000000       0.00000000 
X      -0.34041113      -0.35574703       0.82736736       0.00000000       0.00000000       0.00000000 
X       0.67433255      -0.53545557      -0.30722804       0.00000000       0.00000000       0.00000000 
X      -0.37638219       0.79169705      -0.38830314       0.00000000       0.00000000       0.00000000 
4
Properties=species:S:1:pos:R:3:forces:R:3 pbc="F F F" free_energy=0.0 energy=0.0
X      -0.01185889       0.00198408       0.00983268       0.00000000       0.00000000       0.00000000 
X      -0.34099172      -0.35510171       0.82647763       0.00000000       0.00000000       0.00000000 
X       0.67430070      -0.53440478      -0.30981447       0.00000000       0.00000000       0.00000000 
X      -0.37629759       0.79165984      -0.39014254       0.00000000       0.00000000       0.00000000 
4
Properties=species:S:1:pos:R:3:forces:R:3 pbc="F F F" free_energy=0.0 energy=0.0
X      -0.01266069       0.00520615       0.00760211       0.00000000       0.00000000       0.00000000 
X      -0.34163395      -0.35439118       0.82551347       0.00000000       0.00000000       0.00000000 
X       0.67427819      -0.53325216      -0.31261605       0.00000000       0.00000000       0.00000000 
X      -0.37620012       0.79162289      -0.39213376       0.00000000       0.00000000       0.00000000 
4
Properties=species:S:1:pos:R:3:forces:R:3 pbc="F F F" free_energy=0.0 energy=0.0
X      -0.01357236       0.00844337       0.00543664       0.00000000       0.00000000       0.00000000 
X      -0.34233772      -0.35361614       0.82447682       0.00000000       0.00000000       0.00000000 
X       0.67426740      -0.53199824      -0.31562684       0.00000000       0.00000000       0.00000000 
X      -0.37608902       0.79158666      -0.39427338       0.00000000       0.00000000       0.00000000 
4
Properties=species:S:1:pos:R:3:forces:R:3 pbc="F F F" free_energy=0.0 energy=0.0
X      -0.01459476       0.01167657       0.00331505       0.00000000       0.00000000       0.00000000 
X      -0.34311072      -0.35276910       0.82335887       0.00000000       0.00000000       0.00000000 
X       0.67427104      -0.53063043      -0.31887202       0.00000000       0.00000000       0.00000000 
X      -0.37596204       0.79155133      -0.39658027       0.00000000       0.00000000       0.00000000 
4
Properties=species:S:1:pos:R:3:forces:R:3 pbc="F F F" free_energy=0.0 energy=0.0
X      -0.01574109       0.01488650       0.00122168       0.00000000       0.00000000       0.00000000 
X      -0.34397317      -0.35182929       0.82213444       0.00000000       0.00000000       0.00000000 
X       0.67429302      -0.52911499      -0.32242415       0.00000000       0.00000000       0.00000000 
X      -0.37581449       0.79151701      -0.39910718       0.00000000       0.00000000       0.00000000 
4
Properties=species:S:1:pos:R:3:forces:R:3 pbc="F F F" free_energy=0.0 energy=0.0
X      -0.01694004       0.01778688      -0.00067821       0.00000000       0.00000000       0.00000000 
X      -0.34488286      -0.35084408       0.82086814       0.00000000       0.00000000       0.00000000 
X       0.67433633      -0.52752828      -0.32609573       0.00000000       0.00000000       0.00000000 
X      -0.37565213       0.79148683      -0.40172195       0.00000000       0.00000000       0.00000000 
4
Properties=species:S:1:pos:R:3:forces:R:3 pbc="F F F" free_energy=0.0 energy=0.0
X      -0.01813886       0.02017716      -0.00226614       0.00000000       0.00000000       0.00000000 
X      -0.34581048      -0.34984568       0.81960445       0.00000000       0.00000000       0.00000000 
X       0.67440266      -0.52592244      -0.32975863       0.00000000       0.00000000       0.00000000 
X      -0.37547928       0.79146334      -0.40433421       0.00000000       0.00000000       0.00000000 
4
Properties=species:S:1:pos:R:3:forces:R:3 pbc="F F F" free_energy=0.0 energy=0.0
X      -0.01933091       0.02200056      -0.00350582       0.00000000       0.00000000       0.00000000 
X      -0.34675717      -0.34883217       0.81834457       0.00000000       0.00000000       0.00000000 
X       0.67449416      -0.52429500      -0.33341145       0.00000000       0.00000000       0.00000000 
X      -0.37529549       0.79144831      -0.40694316       0.00000000       0.00000000       0.00000000 
4
Properties=species:S:1:pos:R:3:forces:R:3 pbc="F F F" free_energy=0.0 energy=0.0
X      -0.02051673       0.02327000      -0.00439605       0.00000000       0.00000000       0.00000000 
X      -0.34772251      -0.34780196       0.81708995       0.00000000       0.00000000       0.00000000 
X       0.67461129      -0.52264436      -0.33705311       0.00000000       0.00000000       0.00000000 
X      -0.37510147       0.79144330      -0.40954743       0.00000000       0.00000000       0.00000000 
4
Properties=species:S:1:pos:R:3:forces:R:3 pbc="F F F" free_energy=0.0 energy=0.0
X      -0.02170271       0.02406650      -0.00497567       0.00000000       0.00000000       0.00000000 
X      -0.34870441      -0.34675457       0.81584173       0.00000000       0.00000000       0.00000000 
X       0.67475243      -0.52097060      -0.34068334       0.00000000       0.00000000       0.00000000 
X      -0.37489897       0.79144909      -0.41214563       0.00000000       0.00000000       0.00000000 
4
Properties=species:S:1:pos:R:3:forces:R:3 pbc="F F F" free_energy=0.0 energy=0.0
X      -0.02289749       0.02449077      -0.00529834       0.00000000       0.00000000       0.00000000 
X      -0.34970031      -0.34569020       0.81460070       0.00000000       0.00000000       0.00000000 
X       0.67491525      -0.51927473      -0.34430239       0.00000000       0.00000000       0.00000000 
X      -0.37468995       0.79146587      -0.41473672       0.00000000       0.00000000       0.00000000 
4
Properties=species:S:1:pos:R:3:forces:R:3 pbc="F F F" free_energy=0.0 energy=0.0
X      -0.02411005       0.02462808      -0.00541144       0.00000000       0.00000000       0.00000000 
X      -0.35070805      -0.34460908       0.81336750       0.00000000       0.00000000       0.00000000 
X       0.67509794      -0.51755766      -0.34791048       0.00000000       0.00000000       0.00000000 
X      -0.37447603       0.79149373      -0.41731985       0.00000000       0.00000000       0.00000000 
4
Properties=species:S:1:pos:R:3:forces:R:3 pbc="F F F" free_energy=0.0 energy=0.0
X      -0.02534947       0.02454155      -0.00535104       0.00000000       0.00000000       0.00000000 
X      -0.35172611      -0.34351108       0.81214278       0.00000000       0.00000000       0.00000000 
X       0.67529950      -0.51581977      -0.35150758       0.00000000       0.00000000       0.00000000 
X      -0.37425840       0.79153287      -0.41989422       0.00000000       0.00000000       0.00000000 
4
Properties=species:S:1:pos:R:3:forces:R:3 pbc="F F F" free_energy=0.0 energy=0.0
X      -0.02662518       0.02427679      -0.00514395       0.00000000       0.00000000       0.00000000 
X      -0.35275345      -0.34239580       0.81092726       0.00000000       0.00000000       0.00000000 
X       0.67551968      -0.51406101      -0.35509342       0.00000000       0.00000000       0.00000000 
X      -0.37403793       0.79158370      -0.42245902       0.00000000       0.00000000       0.00000000 
4
Properties=species:S:1:pos:R:3:forces:R:3 pbc="F F F" free_energy=0.0 energy=0.0
X      -0.02794704       0.02386739      -0.00481087       0.00000000       0.00000000       0.00000000 
X      -0.35378932      -0.34126264       0.80972169       0.00000000       0.00000000       0.00000000 
X       0.67575865      -0.51228105      -0.35866758       0.00000000       0.00000000       0.00000000 
X      -0.37381531       0.79164667      -0.42501341       0.00000000       0.00000000       0.00000000 
4
Properties=species:S:1:pos:R:3:forces:R:3 pbc="F F F" free_energy=0.0 energy=0.0
X      -0.02932530       0.02333869      -0.00436867       0.00000000       0.00000000       0.00000000 
X      -0.35483311      -0.34011098       0.80852685       0.00000000       0.00000000       0.00000000 
X       0.67601683      -0.51047946      -0.36222955       0.00000000       0.00000000       0.00000000 
X      -0.37359107       0.79172228      -0.42755660       0.00000000       0.00000000       0.00000000 
4
Properties=species:S:1:pos:R:3:forces:R:3 pbc="F F F" free_energy=0.0 energy=0.0
X      -0.03077029       0.02271009      -0.00383170       0.00000000       0.00000000       0.00000000 
X      -0.35588428      -0.33894026       0.80734343       0.00000000       0.00000000       0.00000000 
X       0.67629476      -0.50865586      -0.36577881       0.00000000       0.00000000       0.00000000 
X      -0.37336566       0.79181098      -0.43008787       0.00000000       0.00000000       0.00000000 
4
Properties=species:S:1:pos:R:3:forces:R:3 pbc="F F F" free_energy=0.0 energy=0.0
X      -0.03229220       0.02199655      -0.00321265       0.00000000       0.00000000       0.00000000 
X      -0.35694231      -0.33775004       0.80617207       0.00000000       0.00000000       0.00000000 
X       0.67659294      -0.50681001      -0.36931490       0.00000000       0.00000000       0.00000000 
X      -0.37313946       0.79191311      -0.43260662       0.00000000       0.00000000       0.00000000 
4
Properties=species:S:1:pos:R:3:forces:R:3 pbc="F F F" free_energy=0.0 energy=0.0
X      -0.03390081       0.02120945      -0.00252290       0.00000000       0.00000000       0.00000000 
X      -0.35800666      -0.33654008       0.80501326       0.00000000       0.00000000       0.00000000 
X       0.67691181      -0.50494182      -0.37283742       0.00000000       0.00000000       0.00000000 
X      -0.37291280       0.79202891      -0.43511237       0.00000000       0.00000000       0.00000000 
4
Properties=species:S:1:pos:R:3:forces:R:3 pbc="F F F" free_energy=0.0 energy=0.0
X      -0.03560529       0.02035738      -0.00177289       0.00000000       0.00000000       0.00000000 
X      -0.35907676      -0.33531029       0.80386744       0.00000000       0.00000000       0.00000000 
X       0.67725172      -0.50305137      -0.37634608       0.00000000       0.00000000       0.00000000 
X      -0.37268593       0.79215849      -0.43760476       0.00000000       0.00000000       0.00000000 
4
Properties=species:S:1:pos:R:3:forces:R:3 pbc="F F F" free_energy=0.0 energy=0.0
X      -0.03741401       0.01944669      -0.00097217       0.00000000       0.00000000       0.00000000 
X      -0.36015202      -0.33406072       0.80273491       0.00000000       0.00000000       0.00000000 
X       0.67761290      -0.50113892      -0.37984066       0.00000000       0.00000000       0.00000000 
X      -0.37245910       0.79230189      -0.44008357       0.00000000       0.00000000       0.00000000 
4
Properties=species:S:1:pos:R:3:forces:R:3 pbc="F F F" free_energy=0.0 energy=0.0
X      -0.03933449       0.01848197      -0.00012964       0.00000000       0.00000000       0.00000000 
X      -0.36123184      -0.33279152       0.80161592       0.00000000       0.00000000       0.00000000 
X       0.67799549      -0.49920483      -0.38332102       0.00000000       0.00000000       0.00000000 
X      -0.37223247       0.79245905      -0.44254867       0.00000000       0.00000000       0.00000000 
4
Properties=species:S:1:pos:R:3:forces:R:3 pbc="F F F" free_energy=0.0 energy=0.0
X      -0.04137331       0.01746651       0.00074642       0.00000000       0.00000000       0.00000000 
X      -0.36231560      -0.33150290       0.80051066       0.00000000       0.00000000       0.00000000 
X       0.67839955      -0.49724949      -0.38678705       0.00000000       0.00000000       0.00000000 
X      -0.37200620       0.79262991      -0.44499998       0.00000000       0.00000000       0.00000000 
4
Properties=species:S:1:pos:R:3:forces:R:3 pbc="F F F" free_energy=0.0 energy=0.0
X      -0.04353622       0.01640253       0.00164826       0.00000000       0.00000000       0.00000000 
X      -0.36340267      -0.33019501       0.79941933       0.00000000       0.00000000       0.00000000 
X       0.67882519      -0.49527328      -0.39023864       0.00000000       0.00000000       0.00000000 
X      -0.37178036       0.79281440      -0.44743742       0.00000000       0.00000000       0.00000000 
4
Properties=species:S:1:pos:R:3:forces:R:3 pbc="F F F" free_energy=0.0 energy=0.0
X      -0.04582843       0.01529141       0.00256866       0.00000000       0.00000000       0.00000000 
X      -0.36449247      -0.32886788       0.79834222       0.00000000       0.00000000       0.00000000 
X       0.67927257      -0.49327646      -0.39367558       0.00000000       0.00000000       0.00000000 
X      -0.37155505       0.79301259      -0.44986084       0.00000000       0.00000000       0.00000000 
4
Properties=species:S:1:pos:R:3:forces:R:3 pbc="F F F" free_energy=0.0 energy=0.0
X      -0.04825503       0.01413377       0.00350092       0.00000000       0.00000000       0.00000000 
X      -0.36558442      -0.32752127       0.79727979       0.00000000       0.00000000       0.00000000 
X       0.67974213      -0.49125897      -0.39709746       0.00000000       0.00000000       0.00000000 
X      -0.37133028       0.79322471      -0.45226989       0.00000000       0.00000000       0.00000000 
4
Properties=species:S:1:pos:R:3:forces:R:3 pbc="F F F" free_energy=0.0 energy=0.0
X      -0.05082185       0.01292929       0.00443888       0.00000000       0.00000000       0.00000000 
X      -0.36667805      -0.32615447       0.79623280       0.00000000       0.00000000       0.00000000 
X       0.68023473      -0.48922029      -0.40050350       0.00000000       0.00000000       0.00000000 
X      -0.37110605       0.79345137      -0.45466389       0.00000000       0.00000000       0.00000000 
4
Properties=species:S:1:pos:R:3:forces:R:3 pbc="F F F" free_energy=0.0 energy=0.0
X      -0.05353670       0.01167649       0.00537693       0.00000000       0.00000000       0.00000000 
X      -0.36777290      -0.32476604       0.79520257       0.00000000       0.00000000       0.00000000 
X       0.68075201      -0.48715914      -0.40389232       0.00000000       0.00000000       0.00000000 
X      -0.37088236       0.79369368      -0.45704157       0.00000000       0.00000000       0.00000000 
4
Properties=species:S:1:pos:R:3:forces:R:3 pbc="F F F" free_energy=0.0 energy=0.0
X      -0.05641141       0.01037206       0.00630998       0.00000000       0.00000000       0.00000000 
X      -0.36886866      -0.32335340       0.79419128       0.00000000       0.00000000       0.00000000 
X       0.68129680      -0.48507307      -0.40726152       0.00000000       0.00000000       0.00000000 
X      -0.37065917       0.79395366      -0.45940074       0.00000000       0.00000000       0.00000000 
4
Properties=species:S:1:pos:R:3:forces:R:3 pbc="F F F" free_energy=0.0 energy=0.0
X      -0.05946539       0.00900980       0.00723338       0.00000000       0.00000000       0.00000000 
X      -0.36996507      -0.32191208       0.79320259       0.00000000       0.00000000       0.00000000 
X       0.68187400      -0.48295768      -0.41060696       0.00000000       0.00000000       0.00000000 
X      -0.37043642       0.79423470      -0.46173760       0.00000000       0.00000000       0.00000000 
4
Properties=species:S:1:pos:R:3:forces:R:3 pbc="F F F" free_energy=0.0 energy=0.0
X      -0.06273245       0.00757828       0.00814276       0.00000000       0.00000000       0.00000000 
X      -0.37106199      -0.32043437       0.79224282       0.00000000       0.00000000       0.00000000 
X       0.68249213      -0.48080530      -0.41392135       0.00000000       0.00000000       0.00000000 
X      -0.37021406       0.79454271      -0.46404551       0.00000000       0.00000000       0.00000000 
4
Properties=species:S:1:pos:R:3:forces:R:3 pbc="F F F" free_energy=0.0 energy=0.0
X      -0.06627652       0.00605565       0.00903355       0.00000000       0.00000000       0.00000000 
X      -0.37215934      -0.31890604       0.79132382       0.00000000       0.00000000       0.00000000 
X       0.68316710      -0.47860175      -0.41719072       0.00000000       0.00000000       0.00000000 
X      -0.36999209       0.79488859      -0.46631182       0.00000000       0.00000000       0.00000000 
4
Properties=species:S:1:pos:R:3:forces:R:3 pbc="F F F" free_energy=0.0 energy=0.0
X      -0.06989231       0.00453883       0.00982434       0.00000000       0.00000000       0.00000000 
X      -0.37316139      -0.31743704       0.79054538       0.00000000       0.00000000       0.00000000 
X       0.68386623      -0.47651596      -0.42010627       0.00000000       0.00000000       0.00000000 
X      -0.36978988       0.79526017      -0.46831756       0.00000000       0.00000000       0.00000000 
4
Properties=species:S:1:pos:R:3:forces:R:3 pbc="F F F" free_energy=0.0 energy=0.0
X      -0.07355112       0.00305504       0.01046579       0.00000000       0.00000000       0.00000000 
X      -0.37400841      -0.31607340       0.78998929       0.00000000       0.00000000       0.00000000 
X       0.68459476      -0.47463091      -0.42245107       0.00000000       0.00000000       0.00000000 
X      -0.36961961       0.79566751      -0.46990452       0.00000000       0.00000000       0.00000000 
4
Properties=species:S:1:pos:R:3:forces:R:3 pbc="F F F" free_energy=0.0 energy=0.0
X      -0.07726767       0.00163423       0.01087627       0.00000000       0.00000000       0.00000000 
X      -0.37459652      -0.31488252       0.78980895       0.00000000       0.00000000       0.00000000 
X       0.68537614      -0.47307843      -0.42383381       0.00000000       0.00000000       0.00000000 
X      -0.36950268       0.79613792      -0.47078508       0.00000000       0.00000000       0.00000000 
4
Properties=species:S:1:pos:R:3:forces:R:3 pbc="F F F" free_energy=0.0 energy=0.0
X      -0.08105717       0.00035386       0.01089663       0.00000000       0.00000000       0.00000000 
X      -0.37470950      -0.31400928       0.79032026       0.00000000       0.00000000       0.00000000 
X       0.68625382      -0.47213772      -0.42344357       0.00000000       0.00000000       0.00000000 
X      -0.36948375       0.79672492      -0.47036400       0.00000000       0.00000000       0.00000000 
4
Properties=species:S:1:pos:R:3:forces:R:3 pbc="F F F" free_energy=0.0 energy=0.0
X      -0.08488877      -0.00061409       0.01027865       0.00000000       0.00000000       0.00000000 
X      -0.37397367      -0.31371619       0.79205997       0.00000000       0.00000000       0.00000000 
X       0.68728840      -0.47230405      -0.41988812       0.00000000       0.00000000       0.00000000 
X      -0.36964013       0.79751194      -0.46762147       0.00000000       0.00000000       0.00000000 
4
Properties=species:S:1:pos:R:3:forces:R:3 pbc="F F F" free_energy=0.0 energy=0.0
X      -0.08626364      -0.00067076       0.00958594       0.00000000       0.00000000       0.00000000 
X      -0.37301972      -0.31408683       0.79368128       0.00000000       0.00000000       0.00000000 
X       0.68778101      -0.47326906      -0.41603766       0.00000000       0.00000000       0.00000000 
X      -0.36983894       0.79795433      -0.46474996       0.00000000       0.00000000       0.00000000 
4
Properties=species:S:1:pos:R:3:forces:R:3 pbc="F F F" free_energy=0.0 energy=0.0
X      -0.08672654      -0.00036985       0.00893309       0.00000000       0.00000000       0.00000000 
X      -0.37202784      -0.31467237       0.79519872       0.00000000       0.00000000       0.00000000 
X       0.68806423      -0.47447358      -0.41223385       0.00000000       0.00000000       0.00000000 
X      -0.37004478       0.79826014      -0.46194509       0.00000000       0.00000000       0.00000000 
4
Properties=species:S:1:pos:R:3:forces:R:3 pbc="F F F" free_energy=0.0 energy=0.0
X      -0.08685668       0.00010521       0.00832891       0.00000000       0.00000000       0.00000000 
X      -0.37102437      -0.31533272       0.79667659       0.00000000       0.00000000       0.00000000 
X       0.68826930      -0.47576201      -0.40845260       0.00000000       0.00000000       0.00000000 
X      -0.37025282       0.79851660      -0.45916890       0.00000000       0.00000000       0.00000000 
4
Properties=species:S:1:pos:R:3:forces:R:3 pbc="F F F" free_energy=0.0 energy=0.0
X      -0.08685454       0.00068663       0.00777178       0.00000000       0.00000000       0.00000000 
X      -0.37001711      -0.31601936       0.79813928       0.00000000       0.00000000       0.00000000 
X       0.68844236      -0.47708170      -0.40468053       0.00000000       0.00000000       0.00000000 
X      -0.37046157       0.79875445      -0.45640488       0.00000000       0.00000000       0.00000000 
4
Properties=species:S:1:pos:R:3:forces:R:3 pbc="F F F" free_energy=0.0 energy=0.0
X      -0.08677852       0.00135261       0.00726140       0.00000000       0.00000000       0.00000000 
X      -0.36900830      -0.31671628       0.79959476       0.00000000       0.00000000       0.00000000 
X       0.68859756      -0.47841634      -0.40091295       0.00000000       0.00000000       0.00000000 
X      -0.37067041       0.79898328      -0.45364814       0.00000000       0.00000000       0.00000000 
4
Properties=species:S:1:pos:R:3:forces:R:3 pbc="F F F" free_energy=0.0 energy=0.0
X      -0.08677852       0.00135261       0.00726140       0.00000000       0.00000000       0.00000000 
X      -0.36900830      -0.31671628       0.79959476       0.00000000       0.00000000       0.00000000 
X       0.68859756      -0.47841634      -0.40091295       0.00000000       0.00000000       0.00000000 
X      -0.37067041       0.79898328      -0.45364814       0.00000000       0.00000000       0.00000000 
4
Properties=species:S:1:pos:R:3:forces:R:3 pbc="F F F" free_energy=0.0 energy=0.0
X      -0.08678519       0.00163318       0.00725046       0.00000000       0.00000000       0.00000000 
X      -0.36899369      -0.31669424       0.79962980       0.00000000       0.00000000       0.00000000 
X       0.68861280      -0.47840941      -0.40085040       0.00000000       0.00000000       0.00000000 
X      -0.37067346       0.79900408      -0.45360083       0.00000000       0.00000000       0.00000000 
4
Properties=species:S:1:pos:R:3:forces:R:3 pbc="F F F" free_energy=0.0 energy=0.0
X      -0.08676807       0.00231941       0.00717078       0.00000000       0.00000000       0.00000000 
X      -0.36894218      -0.31662554       0.79974896       0.00000000       0.00000000       0.00000000 
X       0.68866940      -0.47839321      -0.40063184       0.00000000       0.00000000       0.00000000 
X      -0.37068274       0.79907115      -0.45343974       0.00000000       0.00000000       0.00000000 
4
Properties=species:S:1:pos:R:3:forces:R:3 pbc="F F F" free_energy=0.0 energy=0.0
X      -0.08676807       0.00231941       0.00717078       0.00000000       0.00000000       0.00000000 
X      -0.36894218      -0.31662554       0.79974896       0.00000000       0.00000000       0.00000000 
X       0.68866940      -0.47839321      -0.40063184       0.00000000       0.00000000       0.00000000 
X      -0.37068274       0.79907115      -0.45343974       0.00000000       0.00000000       0.00000000 
4
Properties=species:S:1:pos:R:3:forces:R:3 pbc="F F F" free_energy=0.0 energy=0.0
X      -0.08630013       0.00228757       0.00696501       0.00000000       0.00000000       0.00000000 
X      -0.36892562      -0.31663027       0.79976353       0.00000000       0.00000000       0.00000000 
X       0.68866358      -0.47841755      -0.40060296       0.00000000       0.00000000       0.00000000 
X      -0.37068272       0.79907375      -0.45342684       0.00000000       0.00000000       0.00000000 
4
Properties=species:S:1:pos:R:3:forces:R:3 pbc="F F F" free_energy=0.0 energy=0.0
X      -0.08549899       0.00233671       0.00665395       0.00000000       0.00000000       0.00000000 
X      -0.36889185      -0.31665208       0.79979443       0.00000000       0.00000000       0.00000000 
X       0.68865098      -0.47848550      -0.40053001       0.00000000       0.00000000       0.00000000 
X      -0.37068635       0.79906940      -0.45339704       0.00000000       0.00000000       0.00000000 
4
Properties=species:S:1:pos:R:3:forces:R:3 pbc="F F F" free_energy=0.0 energy=0.0
X      -0.08391207       0.00253743       0.00625422       0.00000000       0.00000000       0.00000000 
X      -0.36882066      -0.31669554       0.79986691       0.00000000       0.00000000       0.00000000 
X       0.68862648      -0.47863377      -0.40035870       0.00000000       0.00000000       0.00000000 
X      -0.37069541       0.79906185      -0.45332352       0.00000000       0.00000000       0.00000000 
4
Properties=species:S:1:pos:R:3:forces:R:3 pbc="F F F" free_energy=0.0 energy=0.0
X      -0.08344886       0.00266426       0.00630207       0.00000000       0.00000000       0.00000000 
X      -0.36879514      -0.31671004       0.79989893       0.00000000       0.00000000       0.00000000 
X       0.68862061      -0.47869195      -0.40028099       0.00000000       0.00000000       0.00000000 
X      -0.37070014       0.79905951      -0.45328817       0.00000000       0.00000000       0.00000000 
4
Properties=species:S:1:pos:R:3:forces:R:3 pbc="F F F" free_energy=0.0 energy=0.0
X      -0.08295076       0.00286172       0.00653631       0.00000000       0.00000000       0.00000000 
X      -0.36875883      -0.31673147       0.79995071       0.00000000       0.00000000       0.00000000 
X       0.68861753      -0.47878150      -0.40015028       0.00000000       0.00000000       0.00000000 
X      -0.37070904       0.79905479      -0.45322835       0.00000000       0.00000000       0.00000000 
